#======================================================================

# CRYSTAL DATA

#----------------------------------------------------------------------

data_VESTA_phase_1


_pd_phase_name                         'C5 H9 Cs F3 N O3 S                    '
_cell_length_a                         8.86716
_cell_length_b                         11.36477
_cell_length_c                         12.18244
_cell_angle_alpha                      79.35531
_cell_angle_beta                       89.60983
_cell_angle_gamma                      89.99703
_symmetry_space_group_name_H-M         'P 1'
_symmetry_Int_Tables_number            1

loop_
_symmetry_equiv_pos_as_xyz
   'x, y, z'

loop_
   _atom_site_label
   _atom_site_occupancy
   _atom_site_fract_x
   _atom_site_fract_y
   _atom_site_fract_z
   _atom_site_adp_type
   _atom_site_B_iso_or_equiv
   _atom_site_type_symbol
   Cs1        1.0     0.330070      0.899428      0.895322     Biso  1.000000 Cs
   Cs2        1.0     0.669930      0.100572      0.104678     Biso  1.000000 Cs
   Cs3        1.0     0.829942      0.647625      0.892740     Biso  1.000000 Cs
   Cs4        1.0     0.170058      0.352375      0.107260     Biso  1.000000 Cs
   S1         1.0     0.330833      0.582394      0.845817     Biso  1.000000 S
   S2         1.0     0.669167      0.417606      0.154183     Biso  1.000000 S
   S3         1.0     0.844591      0.977313      0.842213     Biso  1.000000 S
   S4         1.0     0.155409      0.022687      0.157787     Biso  1.000000 S
   F1         1.0     0.289978      0.759220      0.663873     Biso  1.000000 F
   F2         1.0     0.710022      0.240780      0.336127     Biso  1.000000 F
   F3         1.0     0.390051      0.602658      0.620977     Biso  1.000000 F
   F4         1.0     0.609949      0.397342      0.379023     Biso  1.000000 F
   F5         1.0     0.149976      0.600368      0.664727     Biso  1.000000 F
   F6         1.0     0.850024      0.399632      0.335273     Biso  1.000000 F
   F7         1.0     0.809979      0.868498      0.663856     Biso  1.000000 F
   F8         1.0     0.190021      0.131502      0.336144     Biso  1.000000 F
   F9         1.0     0.909960      0.055782      0.621057     Biso  1.000000 F
   F10        1.0     0.090040      0.944218      0.378943     Biso  1.000000 F
   F11        1.0     0.670017      0.037741      0.664711     Biso  1.000000 F
   F12        1.0     0.329983      0.962259      0.335289     Biso  1.000000 F
   O1         1.0     0.349965      0.133857      0.706475     Biso  1.000000 O
   O2         1.0     0.650035      0.866143      0.293525     Biso  1.000000 O
   O3         1.0     0.470085      0.649227      0.849675     Biso  1.000000 O
   O4         1.0     0.529915      0.350773      0.150325     Biso  1.000000 O
   O5         1.0     0.209982      0.631899      0.907452     Biso  1.000000 O
   O6         1.0     0.790018      0.368101      0.092548     Biso  1.000000 O
   O7         1.0     0.830017      0.477719      0.706598     Biso  1.000000 O
   O8         1.0     0.169983      0.522280      0.293402     Biso  1.000000 O
   O9         1.0     0.710110      0.913235      0.893162     Biso  1.000000 O
   O10        1.0     0.289890      0.086765      0.106838     Biso  1.000000 O
   O11        1.0     0.989970      0.914813      0.849711     Biso  1.000000 O
   O12        1.0     0.010030      0.085188      0.150289     Biso  1.000000 O
   N1         1.0     0.333416      0.444913      0.864013     Biso  1.000000 N
   N2         1.0     0.666584      0.555087      0.135987     Biso  1.000000 N
   N3         1.0     0.847031      0.102839      0.864751     Biso  1.000000 N
   N4         1.0     0.152969      0.897161      0.135249     Biso  1.000000 N
   C1         1.0     0.479737      0.383265      0.842472     Biso  1.000000 C
   C2         1.0     0.520263      0.616735      0.157528     Biso  1.000000 C
   C3         1.0     0.449637      0.257029      0.821887     Biso  1.000000 C
   C4         1.0     0.550363      0.742971      0.178113     Biso  1.000000 C
   C5         1.0     0.390290      0.256797      0.707314     Biso  1.000000 C
   C6         1.0     0.609710      0.743203      0.292686     Biso  1.000000 C
   C7         1.0     0.310330      0.123766      0.590774     Biso  1.000000 C
   C8         1.0     0.689670      0.876233      0.409226     Biso  1.000000 C
   C9         1.0     0.289313      0.639042      0.690813     Biso  1.000000 C
   C10        1.0     0.710687      0.360957      0.309187     Biso  1.000000 C
   C11        1.0     0.980863      0.179247      0.842645     Biso  1.000000 C
   C12        1.0     0.019137      0.820753      0.157355     Biso  1.000000 C
   C13        1.0     0.943600      0.312416      0.822166     Biso  1.000000 C
   C14        1.0     0.056400      0.687584      0.177834     Biso  1.000000 C
   C15        1.0     0.879420      0.358961      0.707641     Biso  1.000000 C
   C16        1.0     0.120580      0.641039      0.292359     Biso  1.000000 C
   C17        1.0     0.790003      0.537559      0.593520     Biso  1.000000 C
   C18        1.0     0.209997      0.462441      0.406480     Biso  1.000000 C
   C19        1.0     0.809021      0.983484      0.690527     Biso  1.000000 C
   C20        1.0     0.190979      0.016516      0.309473     Biso  1.000000 C
   H1         1.0     0.545551      0.373938      0.919170     Biso  1.000000 H
   H2         1.0     0.454449      0.626062      0.080830     Biso  1.000000 H
   H3         1.0     0.542616      0.437370      0.770692     Biso  1.000000 H
   H4         1.0     0.457384      0.562630      0.229308     Biso  1.000000 H
   H5         1.0     0.545506      0.199249      0.833113     Biso  1.000000 H
   H6         1.0     0.454494      0.800751      0.166887     Biso  1.000000 H
   H7         1.0     0.359265      0.216460      0.882397     Biso  1.000000 H
   H8         1.0     0.640735      0.783540      0.117603     Biso  1.000000 H
   H9         1.0     0.294702      0.316368      0.695315     Biso  1.000000 H
   H10        1.0     0.705298      0.683632      0.304685     Biso  1.000000 H
   H11        1.0     0.479280      0.292943      0.640728     Biso  1.000000 H
   H12        1.0     0.520720      0.707057      0.359272     Biso  1.000000 H
   H13        1.0     0.401436      0.153720      0.526616     Biso  1.000000 H
   H14        1.0     0.598564      0.846280      0.473384     Biso  1.000000 H
   H15        1.0     0.218265      0.188920      0.559525     Biso  1.000000 H
   H16        1.0     0.781735      0.811080      0.440475     Biso  1.000000 H
   H17        1.0     0.279197      0.028893      0.596900     Biso  1.000000 H
   H18        1.0     0.720803      0.971107      0.403100     Biso  1.000000 H
   H19        1.0     0.049955      0.157262      0.771526     Biso  1.000000 H
   H20        1.0     0.950045      0.842738      0.228474     Biso  1.000000 H
   H21        1.0     0.047471      0.155267      0.918856     Biso  1.000000 H
   H22        1.0     0.952529      0.844733      0.081144     Biso  1.000000 H
   H23        1.0     0.859666      0.329883      0.888366     Biso  1.000000 H
   H24        1.0     0.140334      0.670117      0.111634     Biso  1.000000 H
   H25        1.0     0.051163      0.359985      0.828906     Biso  1.000000 H
   H26        1.0     0.948837      0.640015      0.171094     Biso  1.000000 H
   H27        1.0     0.961073      0.357552      0.639833     Biso  1.000000 H
   H28        1.0     0.038927      0.642448      0.360167     Biso  1.000000 H
   H29        1.0     0.779487      0.307465      0.695764     Biso  1.000000 H
   H30        1.0     0.220512      0.692535      0.304236     Biso  1.000000 H
   H31        1.0     0.757739      0.627893      0.599238     Biso  1.000000 H
   H32        1.0     0.242261      0.372107      0.400762     Biso  1.000000 H
   H33        1.0     0.698661      0.482924      0.568664     Biso  1.000000 H
   H34        1.0     0.301339      0.517076      0.431336     Biso  1.000000 H
   H35        1.0     0.884428      0.536263      0.535917     Biso  1.000000 H
   H36        1.0     0.115572      0.463737      0.464083     Biso  1.000000 H
