#======================================================================

# CRYSTAL DATA

#----------------------------------------------------------------------

data_VESTA_phase_1


_pd_phase_name                         'S  F  O  N  C  H  Li                  '
_cell_length_a                         5.40848
_cell_length_b                         9.10219
_cell_length_c                         10.22927
_cell_angle_alpha                      78.77885
_cell_angle_beta                       84.66252
_cell_angle_gamma                      88.31921
_symmetry_space_group_name_H-M         'P 1'
_symmetry_Int_Tables_number            1

loop_
_symmetry_equiv_pos_as_xyz
   'x, y, z'

loop_
   _atom_site_label
   _atom_site_occupancy
   _atom_site_fract_x
   _atom_site_fract_y
   _atom_site_fract_z
   _atom_site_adp_type
   _atom_site_B_iso_or_equiv
   _atom_site_type_symbol
   S1         1.0     0.319090      0.580707      0.316921     Biso  1.000000 S
   S2         1.0     0.680910      0.419293      0.683079     Biso  1.000000 S
   F1         1.0     0.049897      0.810002      0.205194     Biso  1.000000 F
   F2         1.0     0.950103      0.189998      0.794806     Biso  1.000000 F
   F3         1.0     0.383264      0.750054      0.080127     Biso  1.000000 F
   F4         1.0     0.616736      0.249946      0.919873     Biso  1.000000 F
   F5         1.0     0.416826      0.870109      0.241182     Biso  1.000000 F
   F6         1.0     0.583174      0.129891      0.758818     Biso  1.000000 F
   O1         1.0     0.816112      0.230669      0.312598     Biso  1.000000 O
   O2         1.0     0.183888      0.769331      0.687402     Biso  1.000000 O
   O3         1.0     0.583440      0.550099      0.294687     Biso  1.000000 O
   O4         1.0     0.416560      0.449901      0.705313     Biso  1.000000 O
   O5         1.0     0.216722      0.629783      0.437589     Biso  1.000000 O
   O6         1.0     0.783278      0.370217      0.562411     Biso  1.000000 O
   N1         1.0     0.153716      0.467462      0.276621     Biso  1.000000 N
   N2         1.0     0.846284      0.532538      0.723379     Biso  1.000000 N
   C1         1.0     0.263937      0.393264      0.169376     Biso  1.000000 C
   C2         1.0     0.736063      0.606736      0.830624     Biso  1.000000 C
   C3         1.0     0.071169      0.312638      0.112095     Biso  1.000000 C
   C4         1.0     0.928831      0.687362      0.887905     Biso  1.000000 C
   C5         1.0     0.961793      0.187712      0.208526     Biso  1.000000 C
   C6         1.0     0.038207      0.812288      0.791474     Biso  1.000000 C
   C7         1.0     0.696849      0.111651      0.401927     Biso  1.000000 C
   C8         1.0     0.303151      0.888349      0.598073     Biso  1.000000 C
   C9         1.0     0.289460      0.762909      0.205447     Biso  1.000000 C
   C10        1.0     0.710540      0.237091      0.794553     Biso  1.000000 C
   H1         1.0     0.407079      0.315868      0.199819     Biso  1.000000 H
   H2         1.0     0.592921      0.684132      0.800181     Biso  1.000000 H
   H3         1.0     0.338075      0.479773      0.087142     Biso  1.000000 H
   H4         1.0     0.661925      0.520227      0.912858     Biso  1.000000 H
   H5         1.0     0.929301      0.401499      0.085916     Biso  1.000000 H
   H6         1.0     0.070699      0.598501      0.914084     Biso  1.000000 H
   H7         1.0     0.138663      0.278482      0.016770     Biso  1.000000 H
   H8         1.0     0.861338      0.721518      0.983230     Biso  1.000000 H
   H9         1.0     0.860146      0.116898      0.158236     Biso  1.000000 H
   H10        1.0     0.139854      0.883102      0.841764     Biso  1.000000 H
   H11        1.0     0.106960      0.115648      0.253011     Biso  1.000000 H
   H12        1.0     0.893040      0.884352      0.746989     Biso  1.000000 H
   H13        1.0     0.594166      0.056539      0.337147     Biso  1.000000 H
   H14        1.0     0.405834      0.943461      0.662853     Biso  1.000000 H
   H15        1.0     0.563346      0.161204      0.467510     Biso  1.000000 H
   H16        1.0     0.436654      0.838796      0.532490     Biso  1.000000 H
   H17        1.0     0.836853      0.035754      0.449808     Biso  1.000000 H
   H18        1.0     0.163147      0.964246      0.550192     Biso  1.000000 H
   Li1        1.0     0.834174      0.419909      0.372112     Biso  1.000000 Li
   Li2        1.0     0.165826      0.580091      0.627888     Biso  1.000000 Li
