#======================================================================

# CRYSTAL DATA

#----------------------------------------------------------------------

data_VESTA_phase_1


_pd_phase_name                         'Na  O  C  H  S  F  N                  '
_cell_length_a                         20.99826
_cell_length_b                         10.70763
_cell_length_c                         10.42170
_cell_angle_alpha                      90
_cell_angle_beta                       117.73544
_cell_angle_gamma                      90
_symmetry_space_group_name_H-M         'P 1'
_symmetry_Int_Tables_number            1

loop_
_symmetry_equiv_pos_as_xyz
   'x, y, z'

loop_
   _atom_site_label
   _atom_site_occupancy
   _atom_site_fract_x
   _atom_site_fract_y
   _atom_site_fract_z
   _atom_site_adp_type
   _atom_site_B_iso_or_equiv
   _atom_site_type_symbol
   Na1        1.0     0.208872      0.891129      0.374793     Biso  1.000000 Na
   Na2        1.0     0.791128      0.108871      0.625207     Biso  1.000000 Na
   Na3        1.0     0.791128      0.891129      0.125207     Biso  1.000000 Na
   Na4        1.0     0.208872      0.108871      0.874793     Biso  1.000000 Na
   Na5        1.0     0.708872      0.391129      0.374793     Biso  1.000000 Na
   Na6        1.0     0.291128      0.608871      0.625207     Biso  1.000000 Na
   Na7        1.0     0.291128      0.391129      0.125207     Biso  1.000000 Na
   Na8        1.0     0.708872      0.608871      0.874793     Biso  1.000000 Na
   O1         1.0     0.392053      0.574814      0.589932     Biso  1.000000 O
   O2         1.0     0.607947      0.425186      0.410068     Biso  1.000000 O
   O3         1.0     0.607947      0.574814      0.910068     Biso  1.000000 O
   O4         1.0     0.392053      0.425186      0.089932     Biso  1.000000 O
   O5         1.0     0.892053      0.074814      0.589932     Biso  1.000000 O
   O6         1.0     0.107947      0.925186      0.410068     Biso  1.000000 O
   O7         1.0     0.107947      0.074814      0.910068     Biso  1.000000 O
   O8         1.0     0.892053      0.925186      0.089932     Biso  1.000000 O
   O9         1.0     0.280176      0.141632      0.115123     Biso  1.000000 O
   O10        1.0     0.719824      0.858368      0.884877     Biso  1.000000 O
   O11        1.0     0.719824      0.141632      0.384877     Biso  1.000000 O
   O12        1.0     0.280176      0.858368      0.615123     Biso  1.000000 O
   O13        1.0     0.780176      0.641632      0.115123     Biso  1.000000 O
   O14        1.0     0.219824      0.358368      0.884877     Biso  1.000000 O
   O15        1.0     0.219824      0.641632      0.384877     Biso  1.000000 O
   O16        1.0     0.780176      0.358368      0.615123     Biso  1.000000 O
   O17        1.0     0.257622      0.063745      0.315619     Biso  1.000000 O
   O18        1.0     0.742378      0.936255      0.684381     Biso  1.000000 O
   O19        1.0     0.742378      0.063745      0.184381     Biso  1.000000 O
   O20        1.0     0.257622      0.936255      0.815619     Biso  1.000000 O
   O21        1.0     0.757622      0.563745      0.315619     Biso  1.000000 O
   O22        1.0     0.242378      0.436255      0.684381     Biso  1.000000 O
   O23        1.0     0.242378      0.563745      0.184381     Biso  1.000000 O
   O24        1.0     0.757622      0.436255      0.815619     Biso  1.000000 O
   C1         1.0     0.423132      0.463704      0.552781     Biso  1.000000 C
   C2         1.0     0.576868      0.536296      0.447219     Biso  1.000000 C
   C3         1.0     0.576868      0.463704      0.947219     Biso  1.000000 C
   C4         1.0     0.423132      0.536296      0.052781     Biso  1.000000 C
   C5         1.0     0.923132      0.963704      0.552781     Biso  1.000000 C
   C6         1.0     0.076868      0.036296      0.447219     Biso  1.000000 C
   C7         1.0     0.076868      0.963704      0.947219     Biso  1.000000 C
   C8         1.0     0.923132      0.036296      0.052781     Biso  1.000000 C
   C9         1.0     0.416045      0.683446      0.547593     Biso  1.000000 C
   C10        1.0     0.583955      0.316554      0.452407     Biso  1.000000 C
   C11        1.0     0.583955      0.683446      0.952407     Biso  1.000000 C
   C12        1.0     0.416045      0.316554      0.047593     Biso  1.000000 C
   C13        1.0     0.916045      0.183446      0.547593     Biso  1.000000 C
   C14        1.0     0.083955      0.816554      0.452407     Biso  1.000000 C
   C15        1.0     0.083955      0.183446      0.952407     Biso  1.000000 C
   C16        1.0     0.916045      0.816554      0.047593     Biso  1.000000 C
   C17        1.0     0.325327      0.292442      0.472711     Biso  1.000000 C
   C18        1.0     0.674673      0.707558      0.527290     Biso  1.000000 C
   C19        1.0     0.674673      0.292442      0.027289     Biso  1.000000 C
   C20        1.0     0.325327      0.707558      0.972710     Biso  1.000000 C
   C21        1.0     0.825327      0.792442      0.472711     Biso  1.000000 C
   C22        1.0     0.174673      0.207558      0.527290     Biso  1.000000 C
   C23        1.0     0.174673      0.792442      0.027289     Biso  1.000000 C
   C24        1.0     0.825327      0.207558      0.972710     Biso  1.000000 C
   C25        1.0     0.399857      0.339117      0.587716     Biso  1.000000 C
   C26        1.0     0.600143      0.660883      0.412284     Biso  1.000000 C
   C27        1.0     0.600143      0.339117      0.912284     Biso  1.000000 C
   C28        1.0     0.399857      0.660883      0.087716     Biso  1.000000 C
   C29        1.0     0.899857      0.839117      0.587716     Biso  1.000000 C
   C30        1.0     0.100143      0.160883      0.412284     Biso  1.000000 C
   C31        1.0     0.100143      0.839117      0.912284     Biso  1.000000 C
   C32        1.0     0.899857      0.160883      0.087716     Biso  1.000000 C
   C33        1.0     0.383850      0.032424      0.335111     Biso  1.000000 C
   C34        1.0     0.616150      0.967576      0.664889     Biso  1.000000 C
   C35        1.0     0.616150      0.032424      0.164889     Biso  1.000000 C
   C36        1.0     0.383850      0.967576      0.835111     Biso  1.000000 C
   C37        1.0     0.883850      0.532424      0.335111     Biso  1.000000 C
   C38        1.0     0.116150      0.467576      0.664889     Biso  1.000000 C
   C39        1.0     0.116150      0.532424      0.164889     Biso  1.000000 C
   C40        1.0     0.883850      0.467576      0.835111     Biso  1.000000 C
   H1         1.0     0.481200      0.469589      0.610836     Biso  1.000000 H
   H2         1.0     0.518800      0.530411      0.389164     Biso  1.000000 H
   H3         1.0     0.518800      0.469589      0.889164     Biso  1.000000 H
   H4         1.0     0.481200      0.530411      0.110836     Biso  1.000000 H
   H5         1.0     0.981200      0.969589      0.610836     Biso  1.000000 H
   H6         1.0     0.018800      0.030411      0.389164     Biso  1.000000 H
   H7         1.0     0.018800      0.969589      0.889164     Biso  1.000000 H
   H8         1.0     0.981200      0.030411      0.110836     Biso  1.000000 H
   H9         1.0     0.407609      0.468044      0.437210     Biso  1.000000 H
   H10        1.0     0.592391      0.531956      0.562790     Biso  1.000000 H
   H11        1.0     0.592391      0.468044      0.062790     Biso  1.000000 H
   H12        1.0     0.407609      0.531956      0.937210     Biso  1.000000 H
   H13        1.0     0.907609      0.968044      0.437210     Biso  1.000000 H
   H14        1.0     0.092391      0.031956      0.562790     Biso  1.000000 H
   H15        1.0     0.092391      0.968044      0.062790     Biso  1.000000 H
   H16        1.0     0.907609      0.031956      0.937210     Biso  1.000000 H
   H17        1.0     0.395076      0.683400      0.426071     Biso  1.000000 H
   H18        1.0     0.604924      0.316600      0.573929     Biso  1.000000 H
   H19        1.0     0.604924      0.683400      0.073929     Biso  1.000000 H
   H20        1.0     0.395076      0.316600      0.926071     Biso  1.000000 H
   H21        1.0     0.895076      0.183400      0.426071     Biso  1.000000 H
   H22        1.0     0.104925      0.816600      0.573929     Biso  1.000000 H
   H23        1.0     0.104925      0.183400      0.073929     Biso  1.000000 H
   H24        1.0     0.895076      0.816600      0.926071     Biso  1.000000 H
   H25        1.0     0.474703      0.683558      0.593408     Biso  1.000000 H
   H26        1.0     0.525297      0.316442      0.406592     Biso  1.000000 H
   H27        1.0     0.525297      0.683558      0.906592     Biso  1.000000 H
   H28        1.0     0.474703      0.316442      0.093408     Biso  1.000000 H
   H29        1.0     0.974703      0.183558      0.593408     Biso  1.000000 H
   H30        1.0     0.025297      0.816442      0.406592     Biso  1.000000 H
   H31        1.0     0.025297      0.183558      0.906592     Biso  1.000000 H
   H32        1.0     0.974703      0.816442      0.093408     Biso  1.000000 H
   H33        1.0     0.396574      0.769015      0.575894     Biso  1.000000 H
   H34        1.0     0.603426      0.230985      0.424106     Biso  1.000000 H
   H35        1.0     0.603426      0.769015      0.924106     Biso  1.000000 H
   H36        1.0     0.396574      0.230985      0.075894     Biso  1.000000 H
   H37        1.0     0.896574      0.269015      0.575894     Biso  1.000000 H
   H38        1.0     0.103426      0.730985      0.424106     Biso  1.000000 H
   H39        1.0     0.103426      0.269015      0.924106     Biso  1.000000 H
   H40        1.0     0.896574      0.730985      0.075894     Biso  1.000000 H
   H41        1.0     0.306201      0.213713      0.510734     Biso  1.000000 H
   H42        1.0     0.693799      0.786287      0.489266     Biso  1.000000 H
   H43        1.0     0.693799      0.213713      0.989266     Biso  1.000000 H
   H44        1.0     0.306201      0.786287      0.010734     Biso  1.000000 H
   H45        1.0     0.806201      0.713713      0.510734     Biso  1.000000 H
   H46        1.0     0.193799      0.286287      0.489266     Biso  1.000000 H
   H47        1.0     0.193799      0.713713      0.989266     Biso  1.000000 H
   H48        1.0     0.806201      0.286287      0.010734     Biso  1.000000 H
   H49        1.0     0.286814      0.369600      0.454891     Biso  1.000000 H
   H50        1.0     0.713186      0.630400      0.545109     Biso  1.000000 H
   H51        1.0     0.713186      0.369600      0.045109     Biso  1.000000 H
   H52        1.0     0.286814      0.630400      0.954891     Biso  1.000000 H
   H53        1.0     0.786814      0.869600      0.454891     Biso  1.000000 H
   H54        1.0     0.213186      0.130400      0.545109     Biso  1.000000 H
   H55        1.0     0.213186      0.869600      0.045109     Biso  1.000000 H
   H56        1.0     0.786814      0.130400      0.954891     Biso  1.000000 H
   H57        1.0     0.399171      0.349719      0.693284     Biso  1.000000 H
   H58        1.0     0.600829      0.650281      0.306716     Biso  1.000000 H
   H59        1.0     0.600829      0.349719      0.806716     Biso  1.000000 H
   H60        1.0     0.399171      0.650281      0.193284     Biso  1.000000 H
   H61        1.0     0.899171      0.849719      0.693284     Biso  1.000000 H
   H62        1.0     0.100829      0.150281      0.306716     Biso  1.000000 H
   H63        1.0     0.100829      0.849719      0.806716     Biso  1.000000 H
   H64        1.0     0.899171      0.150281      0.193284     Biso  1.000000 H
   H65        1.0     0.438123      0.266374      0.594420     Biso  1.000000 H
   H66        1.0     0.561877      0.733626      0.405580     Biso  1.000000 H
   H67        1.0     0.561877      0.266374      0.905580     Biso  1.000000 H
   H68        1.0     0.438123      0.733626      0.094420     Biso  1.000000 H
   H69        1.0     0.938123      0.766374      0.594420     Biso  1.000000 H
   H70        1.0     0.061877      0.233626      0.405580     Biso  1.000000 H
   H71        1.0     0.061877      0.766374      0.905580     Biso  1.000000 H
   H72        1.0     0.938123      0.233626      0.094420     Biso  1.000000 H
   S1         1.0     0.302181      0.132557      0.268667     Biso  1.000000 S
   S2         1.0     0.697819      0.867443      0.731333     Biso  1.000000 S
   S3         1.0     0.697819      0.132557      0.231333     Biso  1.000000 S
   S4         1.0     0.302181      0.867443      0.768667     Biso  1.000000 S
   S5         1.0     0.802181      0.632557      0.268667     Biso  1.000000 S
   S6         1.0     0.197819      0.367443      0.731333     Biso  1.000000 S
   S7         1.0     0.197819      0.632557      0.231333     Biso  1.000000 S
   S8         1.0     0.802181      0.367443      0.768667     Biso  1.000000 S
   F1         1.0     0.369278      0.908439      0.279362     Biso  1.000000 F
   F2         1.0     0.630722      0.091561      0.720638     Biso  1.000000 F
   F3         1.0     0.630722      0.908439      0.220638     Biso  1.000000 F
   F4         1.0     0.369278      0.091561      0.779362     Biso  1.000000 F
   F5         1.0     0.869278      0.408439      0.279362     Biso  1.000000 F
   F6         1.0     0.130722      0.591561      0.720638     Biso  1.000000 F
   F7         1.0     0.130722      0.408439      0.220638     Biso  1.000000 F
   F8         1.0     0.869278      0.591561      0.779362     Biso  1.000000 F
   F9         1.0     0.433667      0.091528      0.306699     Biso  1.000000 F
   F10        1.0     0.566333      0.908472      0.693301     Biso  1.000000 F
   F11        1.0     0.566333      0.091528      0.193301     Biso  1.000000 F
   F12        1.0     0.433667      0.908472      0.806699     Biso  1.000000 F
   F13        1.0     0.933667      0.591528      0.306699     Biso  1.000000 F
   F14        1.0     0.066333      0.408472      0.693301     Biso  1.000000 F
   F15        1.0     0.066333      0.591528      0.193301     Biso  1.000000 F
   F16        1.0     0.933667      0.408472      0.806699     Biso  1.000000 F
   F17        1.0     0.414062      0.024967      0.487161     Biso  1.000000 F
   F18        1.0     0.585938      0.975033      0.512839     Biso  1.000000 F
   F19        1.0     0.585938      0.024967      0.012839     Biso  1.000000 F
   F20        1.0     0.414062      0.975033      0.987161     Biso  1.000000 F
   F21        1.0     0.914062      0.524967      0.487161     Biso  1.000000 F
   F22        1.0     0.085938      0.475033      0.512839     Biso  1.000000 F
   F23        1.0     0.085938      0.524967      0.012839     Biso  1.000000 F
   F24        1.0     0.914062      0.475033      0.987161     Biso  1.000000 F
   N1         1.0     0.326067      0.259660      0.335763     Biso  1.000000 N
   N2         1.0     0.673933      0.740340      0.664237     Biso  1.000000 N
   N3         1.0     0.673933      0.259660      0.164237     Biso  1.000000 N
   N4         1.0     0.326067      0.740340      0.835763     Biso  1.000000 N
   N5         1.0     0.826067      0.759660      0.335763     Biso  1.000000 N
   N6         1.0     0.173933      0.240340      0.664237     Biso  1.000000 N
   N7         1.0     0.173933      0.759660      0.164237     Biso  1.000000 N
   N8         1.0     0.826067      0.240340      0.835763     Biso  1.000000 N
