#======================================================================

# CRYSTAL DATA

#----------------------------------------------------------------------

data_VESTA_phase_1


_pd_phase_name                         'C5 H9 F3 N O3 Rb S                    '
_cell_length_a                         8.43885
_cell_length_b                         10.71597
_cell_length_c                         23.23868
_cell_angle_alpha                      90
_cell_angle_beta                       94.01040
_cell_angle_gamma                      90
_symmetry_space_group_name_H-M         'P 1'
_symmetry_Int_Tables_number            1

loop_
_symmetry_equiv_pos_as_xyz
   'x, y, z'

loop_
   _atom_site_label
   _atom_site_occupancy
   _atom_site_fract_x
   _atom_site_fract_y
   _atom_site_fract_z
   _atom_site_adp_type
   _atom_site_B_iso_or_equiv
   _atom_site_type_symbol
   Rb1        1.0     0.826042      0.983427      0.304511     Biso  1.000000 Rb
   Rb2        1.0     0.173958      0.016573      0.695489     Biso  1.000000 Rb
   Rb3        1.0     0.673958      0.483427      0.195489     Biso  1.000000 Rb
   Rb4        1.0     0.326042      0.516573      0.804511     Biso  1.000000 Rb
   Rb5        1.0     0.323295      0.715545      0.304711     Biso  1.000000 Rb
   Rb6        1.0     0.676705      0.284455      0.695289     Biso  1.000000 Rb
   Rb7        1.0     0.176705      0.215545      0.195289     Biso  1.000000 Rb
   Rb8        1.0     0.823295      0.784455      0.804711     Biso  1.000000 Rb
   S1         1.0     0.334099      0.043337      0.326537     Biso  1.000000 S
   S2         1.0     0.665901      0.956663      0.673463     Biso  1.000000 S
   S3         1.0     0.165901      0.543337      0.173463     Biso  1.000000 S
   S4         1.0     0.834099      0.456663      0.826537     Biso  1.000000 S
   S5         1.0     0.820973      0.653788      0.327351     Biso  1.000000 S
   S6         1.0     0.179027      0.346212      0.672649     Biso  1.000000 S
   S7         1.0     0.679027      0.153788      0.172649     Biso  1.000000 S
   S8         1.0     0.320973      0.846212      0.827351     Biso  1.000000 S
   F1         1.0     0.301151      0.891563      0.416266     Biso  1.000000 F
   F2         1.0     0.698849      0.108437      0.583734     Biso  1.000000 F
   F3         1.0     0.198849      0.391563      0.083734     Biso  1.000000 F
   F4         1.0     0.801151      0.608437      0.916266     Biso  1.000000 F
   F5         1.0     0.780317      0.808428      0.416252     Biso  1.000000 F
   F6         1.0     0.219683      0.191572      0.583748     Biso  1.000000 F
   F7         1.0     0.719683      0.308428      0.083748     Biso  1.000000 F
   F8         1.0     0.280317      0.691572      0.916252     Biso  1.000000 F
   F9         1.0     0.155225      0.058342      0.416247     Biso  1.000000 F
   F10        1.0     0.844775      0.941658      0.583753     Biso  1.000000 F
   F11        1.0     0.344775      0.558342      0.083753     Biso  1.000000 F
   F12        1.0     0.655225      0.441658      0.916247     Biso  1.000000 F
   F13        1.0     0.884535      0.625028      0.439732     Biso  1.000000 F
   F14        1.0     0.115465      0.374972      0.560268     Biso  1.000000 F
   F15        1.0     0.615465      0.125028      0.060268     Biso  1.000000 F
   F16        1.0     0.384535      0.874972      0.939732     Biso  1.000000 F
   F17        1.0     0.407358      0.075074      0.435436     Biso  1.000000 F
   F18        1.0     0.592642      0.924926      0.564564     Biso  1.000000 F
   F19        1.0     0.092642      0.575074      0.064564     Biso  1.000000 F
   F20        1.0     0.907358      0.424926      0.935436     Biso  1.000000 F
   F21        1.0     0.634387      0.641661      0.416230     Biso  1.000000 F
   F22        1.0     0.365613      0.358339      0.583771     Biso  1.000000 F
   F23        1.0     0.865613      0.141661      0.083770     Biso  1.000000 F
   F24        1.0     0.134387      0.858339      0.916229     Biso  1.000000 F
   O1         1.0     0.675920      0.712910      0.300954     Biso  1.000000 O
   O2         1.0     0.324080      0.287090      0.699046     Biso  1.000000 O
   O3         1.0     0.824080      0.212910      0.199046     Biso  1.000000 O
   O4         1.0     0.175920      0.787090      0.800954     Biso  1.000000 O
   O5         1.0     0.487080      0.975057      0.324311     Biso  1.000000 O
   O6         1.0     0.512920      0.024943      0.675689     Biso  1.000000 O
   O7         1.0     0.012920      0.475057      0.175689     Biso  1.000000 O
   O8         1.0     0.987080      0.524943      0.824311     Biso  1.000000 O
   O9         1.0     0.971151      0.724953      0.324128     Biso  1.000000 O
   O10        1.0     0.028849      0.275047      0.675872     Biso  1.000000 O
   O11        1.0     0.528849      0.224953      0.175872     Biso  1.000000 O
   O12        1.0     0.471151      0.775047      0.824128     Biso  1.000000 O
   O13        1.0     0.195367      0.975050      0.300825     Biso  1.000000 O
   O14        1.0     0.804633      0.024950      0.699175     Biso  1.000000 O
   O15        1.0     0.304633      0.475050      0.199175     Biso  1.000000 O
   O16        1.0     0.695367      0.524950      0.800825     Biso  1.000000 O
   O17        1.0     0.324097      0.537172      0.401944     Biso  1.000000 O
   O18        1.0     0.675903      0.462828      0.598056     Biso  1.000000 O
   O19        1.0     0.175903      0.037172      0.098056     Biso  1.000000 O
   O20        1.0     0.824097      0.962828      0.901944     Biso  1.000000 O
   O21        1.0     0.821918      0.158288      0.400745     Biso  1.000000 O
   O22        1.0     0.178082      0.841712      0.599255     Biso  1.000000 O
   O23        1.0     0.678082      0.658288      0.099255     Biso  1.000000 O
   O24        1.0     0.321918      0.341712      0.900745     Biso  1.000000 O
   N1         1.0     0.822219      0.511620      0.317192     Biso  1.000000 N
   N2         1.0     0.177781      0.488380      0.682808     Biso  1.000000 N
   N3         1.0     0.677781      0.011620      0.182808     Biso  1.000000 N
   N4         1.0     0.322219      0.988380      0.817192     Biso  1.000000 N
   N5         1.0     0.323270      0.187748      0.315522     Biso  1.000000 N
   N6         1.0     0.676730      0.812252      0.684478     Biso  1.000000 N
   N7         1.0     0.176730      0.687748      0.184478     Biso  1.000000 N
   N8         1.0     0.823270      0.312252      0.815522     Biso  1.000000 N
   C1         1.0     0.477073      0.257225      0.325113     Biso  1.000000 C
   C2         1.0     0.522927      0.742775      0.674887     Biso  1.000000 C
   C3         1.0     0.022927      0.757225      0.174887     Biso  1.000000 C
   C4         1.0     0.977073      0.242775      0.825113     Biso  1.000000 C
   C5         1.0     0.970319      0.442168      0.326544     Biso  1.000000 C
   C6         1.0     0.029681      0.557832      0.673456     Biso  1.000000 C
   C7         1.0     0.529681      0.942168      0.173456     Biso  1.000000 C
   C8         1.0     0.470319      0.057832      0.826544     Biso  1.000000 C
   C9         1.0     0.938873      0.307293      0.338471     Biso  1.000000 C
   C10        1.0     0.061127      0.692707      0.661529     Biso  1.000000 C
   C11        1.0     0.561127      0.807293      0.161529     Biso  1.000000 C
   C12        1.0     0.438873      0.192707      0.838471     Biso  1.000000 C
   C13        1.0     0.439466      0.391916      0.338240     Biso  1.000000 C
   C14        1.0     0.560534      0.608084      0.661760     Biso  1.000000 C
   C15        1.0     0.060534      0.891916      0.161760     Biso  1.000000 C
   C16        1.0     0.939466      0.108084      0.838240     Biso  1.000000 C
   C17        1.0     0.372637      0.408611      0.395829     Biso  1.000000 C
   C18        1.0     0.627363      0.591389      0.604171     Biso  1.000000 C
   C19        1.0     0.127363      0.908611      0.104171     Biso  1.000000 C
   C20        1.0     0.872637      0.091389      0.895829     Biso  1.000000 C
   C21        1.0     0.879187      0.283422      0.396219     Biso  1.000000 C
   C22        1.0     0.120813      0.716578      0.603781     Biso  1.000000 C
   C23        1.0     0.620813      0.783422      0.103781     Biso  1.000000 C
   C24        1.0     0.379187      0.216578      0.896219     Biso  1.000000 C
   C25        1.0     0.791257      0.125158      0.457338     Biso  1.000000 C
   C26        1.0     0.208743      0.874842      0.542662     Biso  1.000000 C
   C27        1.0     0.708743      0.625158      0.042662     Biso  1.000000 C
   C28        1.0     0.291257      0.374842      0.957338     Biso  1.000000 C
   C29        1.0     0.267927      0.560453      0.454866     Biso  1.000000 C
   C30        1.0     0.732073      0.439547      0.545134     Biso  1.000000 C
   C31        1.0     0.232073      0.060453      0.045134     Biso  1.000000 C
   C32        1.0     0.767927      0.939547      0.954866     Biso  1.000000 C
   C33        1.0     0.299945      0.014813      0.402692     Biso  1.000000 C
   C34        1.0     0.700055      0.985187      0.597308     Biso  1.000000 C
   C35        1.0     0.200055      0.514813      0.097308     Biso  1.000000 C
   C36        1.0     0.799945      0.485187      0.902692     Biso  1.000000 C
   C37        1.0     0.778948      0.684842      0.403261     Biso  1.000000 C
   C38        1.0     0.221052      0.315158      0.596739     Biso  1.000000 C
   C39        1.0     0.721052      0.184842      0.096739     Biso  1.000000 C
   C40        1.0     0.278948      0.815158      0.903261     Biso  1.000000 C
   H1         1.0     0.546815      0.250042      0.287712     Biso  1.000000 H
   H2         1.0     0.453185      0.749958      0.712288     Biso  1.000000 H
   H3         1.0     0.953185      0.750042      0.212288     Biso  1.000000 H
   H4         1.0     0.046815      0.249958      0.787712     Biso  1.000000 H
   H5         1.0     0.550576      0.216139      0.360404     Biso  1.000000 H
   H6         1.0     0.449424      0.783861      0.639596     Biso  1.000000 H
   H7         1.0     0.949424      0.716139      0.139596     Biso  1.000000 H
   H8         1.0     0.050576      0.283861      0.860404     Biso  1.000000 H
   H9         1.0     0.045407      0.483596      0.362145     Biso  1.000000 H
   H10        1.0     0.954593      0.516404      0.637855     Biso  1.000000 H
   H11        1.0     0.454593      0.983596      0.137855     Biso  1.000000 H
   H12        1.0     0.545407      0.016404      0.862145     Biso  1.000000 H
   H13        1.0     0.045065      0.449847      0.288570     Biso  1.000000 H
   H14        1.0     0.954935      0.550153      0.711430     Biso  1.000000 H
   H15        1.0     0.454935      0.949847      0.211430     Biso  1.000000 H
   H16        1.0     0.545065      0.050153      0.788570     Biso  1.000000 H
   H17        1.0     0.850616      0.278397      0.304130     Biso  1.000000 H
   H18        1.0     0.149384      0.721603      0.695870     Biso  1.000000 H
   H19        1.0     0.649384      0.778397      0.195870     Biso  1.000000 H
   H20        1.0     0.350616      0.221603      0.804130     Biso  1.000000 H
   H21        1.0     0.046518      0.249396      0.335113     Biso  1.000000 H
   H22        1.0     0.953482      0.750604      0.664887     Biso  1.000000 H
   H23        1.0     0.453482      0.749396      0.164887     Biso  1.000000 H
   H24        1.0     0.546518      0.250604      0.835113     Biso  1.000000 H
   H25        1.0     0.546246      0.451212      0.335481     Biso  1.000000 H
   H26        1.0     0.453754      0.548788      0.664519     Biso  1.000000 H
   H27        1.0     0.953754      0.951212      0.164519     Biso  1.000000 H
   H28        1.0     0.046246      0.048788      0.835481     Biso  1.000000 H
   H29        1.0     0.350591      0.421452      0.304107     Biso  1.000000 H
   H30        1.0     0.649409      0.578548      0.695893     Biso  1.000000 H
   H31        1.0     0.149409      0.921452      0.195893     Biso  1.000000 H
   H32        1.0     0.850591      0.078548      0.804107     Biso  1.000000 H
   H33        1.0     0.267305      0.348758      0.399259     Biso  1.000000 H
   H34        1.0     0.732695      0.651242      0.600741     Biso  1.000000 H
   H35        1.0     0.232695      0.848758      0.100741     Biso  1.000000 H
   H36        1.0     0.767305      0.151242      0.899259     Biso  1.000000 H
   H37        1.0     0.462311      0.384175      0.430326     Biso  1.000000 H
   H38        1.0     0.537689      0.615825      0.569674     Biso  1.000000 H
   H39        1.0     0.037689      0.884175      0.069674     Biso  1.000000 H
   H40        1.0     0.962311      0.115825      0.930326     Biso  1.000000 H
   H41        1.0     0.973241      0.300050      0.430035     Biso  1.000000 H
   H42        1.0     0.026759      0.699950      0.569965     Biso  1.000000 H
   H43        1.0     0.526759      0.800050      0.069965     Biso  1.000000 H
   H44        1.0     0.473241      0.199950      0.930035     Biso  1.000000 H
   H45        1.0     0.785654      0.351372      0.406204     Biso  1.000000 H
   H46        1.0     0.214346      0.648628      0.593796     Biso  1.000000 H
   H47        1.0     0.714346      0.851372      0.093796     Biso  1.000000 H
   H48        1.0     0.285654      0.148628      0.906204     Biso  1.000000 H
   H49        1.0     0.746647      0.030529      0.459372     Biso  1.000000 H
   H50        1.0     0.253353      0.969471      0.540628     Biso  1.000000 H
   H51        1.0     0.753353      0.530529      0.040628     Biso  1.000000 H
   H52        1.0     0.246647      0.469471      0.959372     Biso  1.000000 H
   H53        1.0     0.697166      0.185112      0.469336     Biso  1.000000 H
   H54        1.0     0.302834      0.814888      0.530664     Biso  1.000000 H
   H55        1.0     0.802834      0.685112      0.030664     Biso  1.000000 H
   H56        1.0     0.197166      0.314888      0.969336     Biso  1.000000 H
   H57        1.0     0.900371      0.136711      0.485332     Biso  1.000000 H
   H58        1.0     0.099629      0.863289      0.514668     Biso  1.000000 H
   H59        1.0     0.599629      0.636711      0.014668     Biso  1.000000 H
   H60        1.0     0.400371      0.363289      0.985332     Biso  1.000000 H
   H61        1.0     0.367433      0.550103      0.485689     Biso  1.000000 H
   H62        1.0     0.632568      0.449897      0.514311     Biso  1.000000 H
   H63        1.0     0.132568      0.050103      0.014311     Biso  1.000000 H
   H64        1.0     0.867432      0.949897      0.985689     Biso  1.000000 H
   H65        1.0     0.176280      0.498421      0.468395     Biso  1.000000 H
   H66        1.0     0.823720      0.501579      0.531605     Biso  1.000000 H
   H67        1.0     0.323720     -0.001579      0.031605     Biso  1.000000 H
   H68        1.0     0.676280      0.001579      0.968395     Biso  1.000000 H
   H69        1.0     0.224752      0.654294      0.452630     Biso  1.000000 H
   H70        1.0     0.775248      0.345706      0.547370     Biso  1.000000 H
   H71        1.0     0.275248      0.154294      0.047370     Biso  1.000000 H
   H72        1.0     0.724752      0.845706      0.952630     Biso  1.000000 H
