#======================================================================

# CRYSTAL DATA

#----------------------------------------------------------------------

data_VESTA_phase_1


_pd_phase_name                         'C5 H9 F3 K N O3 S                     '
_cell_length_a                         10.40734
_cell_length_b                         10.80071
_cell_length_c                         14.49773
_cell_angle_alpha                      87.21620
_cell_angle_beta                       75.13694
_cell_angle_gamma                      85.35301
_symmetry_space_group_name_H-M         'P 1'
_symmetry_Int_Tables_number            1

loop_
_symmetry_equiv_pos_as_xyz
   'x, y, z'

loop_
   _atom_site_label
   _atom_site_occupancy
   _atom_site_fract_x
   _atom_site_fract_y
   _atom_site_fract_z
   _atom_site_adp_type
   _atom_site_B_iso_or_equiv
   _atom_site_type_symbol
   K1         1.0     0.013228      0.920254      0.354398     Biso  1.000000 K
   K2         1.0     0.986772      0.079746      0.645602     Biso  1.000000 K
   K3         1.0     0.972774      0.507864      0.625357     Biso  1.000000 K
   K4         1.0     0.027226      0.492136      0.374643     Biso  1.000000 K
   K5         1.0     0.650462      0.525401      0.374251     Biso  1.000000 K
   K6         1.0     0.349538      0.474599      0.625749     Biso  1.000000 K
   S1         1.0     0.848217      0.239400      0.473143     Biso  1.000000 S
   S2         1.0     0.151783      0.760600      0.526857     Biso  1.000000 S
   S3         1.0     0.308377      0.342306      0.426019     Biso  1.000000 S
   S4         1.0     0.691623      0.657694      0.573981     Biso  1.000000 S
   S5         1.0     0.958448      0.702252      0.211929     Biso  1.000000 S
   S6         1.0     0.041552      0.297748      0.788071     Biso  1.000000 S
   F1         1.0     0.598937      0.145176      0.520678     Biso  1.000000 F
   F2         1.0     0.401063      0.854824      0.479322     Biso  1.000000 F
   F3         1.0     0.612326      0.330221      0.580890     Biso  1.000000 F
   F4         1.0     0.387674      0.669779      0.419110     Biso  1.000000 F
   F5         1.0     0.687019      0.173264      0.641870     Biso  1.000000 F
   F6         1.0     0.312981      0.826736      0.358130     Biso  1.000000 F
   F7         1.0     0.405761      0.112690      0.393092     Biso  1.000000 F
   F8         1.0     0.594239      0.887310      0.606908     Biso  1.000000 F
   F9         1.0     0.186732      0.140515      0.441651     Biso  1.000000 F
   F10        1.0     0.813268      0.859485      0.558349     Biso  1.000000 F
   F11        1.0     0.312539      0.141804      0.544352     Biso  1.000000 F
   F12        1.0     0.687461      0.858196      0.455648     Biso  1.000000 F
   F13        1.0     0.937802      0.677877      0.032578     Biso  1.000000 F
   F14        1.0     0.062198      0.322123      0.967422     Biso  1.000000 F
   F15        1.0     0.116673      0.758618      0.044301     Biso  1.000000 F
   F16        1.0     0.883327      0.241382      0.955699     Biso  1.000000 F
   F17        1.0     0.082725      0.558757      0.070576     Biso  1.000000 F
   F18        1.0     0.917275      0.441243      0.929424     Biso  1.000000 F
   O1         1.0     0.080881      0.092439      0.208358     Biso  1.000000 O
   O2         1.0     0.919119      0.907561      0.791642     Biso  1.000000 O
   O3         1.0     0.901211      0.107519      0.466510     Biso  1.000000 O
   O4         1.0     0.098789      0.892481      0.533490     Biso  1.000000 O
   O5         1.0     0.901290      0.323752      0.528960     Biso  1.000000 O
   O6         1.0     0.098710      0.676248      0.471040     Biso  1.000000 O
   O7         1.0     0.563306      0.525943      0.196042     Biso  1.000000 O
   O8         1.0     0.436694      0.474057      0.803958     Biso  1.000000 O
   O9         1.0     0.205467      0.391696      0.507141     Biso  1.000000 O
   O10        1.0     0.794533      0.608304      0.492859     Biso  1.000000 O
   O11        1.0     0.442170      0.362828      0.430878     Biso  1.000000 O
   O12        1.0     0.557830      0.637172      0.569122     Biso  1.000000 O
   O13        1.0     0.545221      0.874783      0.094790     Biso  1.000000 O
   O14        1.0     0.454779      0.125217      0.905209     Biso  1.000000 O
   O15        1.0     0.884032      0.591540      0.244718     Biso  1.000000 O
   O16        1.0     0.115968      0.408460      0.755282     Biso  1.000000 O
   O17        1.0     0.080173      0.708352      0.242772     Biso  1.000000 O
   O18        1.0     0.919827      0.291648      0.757228     Biso  1.000000 O
   N1         1.0     0.829330      0.309370      0.381199     Biso  1.000000 N
   N2         1.0     0.170670      0.690630      0.618801     Biso  1.000000 N
   N3         1.0     0.275355      0.360724      0.330144     Biso  1.000000 N
   N4         1.0     0.724645      0.639276      0.669856     Biso  1.000000 N
   N5         1.0     0.881701      0.827555      0.218647     Biso  1.000000 N
   N6         1.0     0.118299      0.172445      0.781353     Biso  1.000000 N
   C1         1.0     0.056301      0.224406      0.208834     Biso  1.000000 C
   C2         1.0     0.943699      0.775594      0.791166     Biso  1.000000 C
   C3         1.0     0.914466      0.268972      0.207514     Biso  1.000000 C
   C4         1.0     0.085534      0.731028      0.792486     Biso  1.000000 C
   C5         1.0     0.812992      0.235247      0.302673     Biso  1.000000 C
   C6         1.0     0.187008      0.764753      0.697327     Biso  1.000000 C
   C7         1.0     0.097517      0.048179      0.109932     Biso  1.000000 C
   C8         1.0     0.902483      0.951821      0.890068     Biso  1.000000 C
   C9         1.0     0.679756      0.219257      0.556376     Biso  1.000000 C
   C10        1.0     0.320244      0.780743      0.443624     Biso  1.000000 C
   C11        1.0     0.436416      0.547094      0.183489     Biso  1.000000 C
   C12        1.0     0.563585      0.452906      0.816511     Biso  1.000000 C
   C13        1.0     0.384266      0.429198      0.158084     Biso  1.000000 C
   C14        1.0     0.615734      0.570802      0.841916     Biso  1.000000 C
   C15        1.0     0.382005      0.330077      0.236263     Biso  1.000000 C
   C16        1.0     0.617995      0.669923      0.763737     Biso  1.000000 C
   C17        1.0     0.669885      0.511504      0.108287     Biso  1.000000 C
   C18        1.0     0.330115      0.488496      0.891713     Biso  1.000000 C
   C19        1.0     0.301737      0.175838      0.454328     Biso  1.000000 C
   C20        1.0     0.698263      0.824162      0.545672     Biso  1.000000 C
   C21        1.0     0.562875      0.962171      0.158258     Biso  1.000000 C
   C22        1.0     0.437125      0.037829      0.841742     Biso  1.000000 C
   C23        1.0     0.704778      0.957974      0.168827     Biso  1.000000 C
   C24        1.0     0.295222      0.042026      0.831173     Biso  1.000000 C
   C25        1.0     0.740698      0.837834      0.216878     Biso  1.000000 C
   C26        1.0     0.259302      0.162166      0.783121     Biso  1.000000 C
   C27        1.0     0.415360      0.877210      0.085580     Biso  1.000000 C
   C28        1.0     0.584640      0.122790      0.914420     Biso  1.000000 C
   C29        1.0     0.027640      0.675552      0.083130     Biso  1.000000 C
   C30        1.0     0.972360      0.324448      0.916870     Biso  1.000000 C
   H1         1.0     0.127367      0.267791      0.148280     Biso  1.000000 H
   H2         1.0     0.872633      0.732209      0.851720     Biso  1.000000 H
   H3         1.0     0.072901      0.249673      0.277056     Biso  1.000000 H
   H4         1.0     0.927099      0.750327      0.722944     Biso  1.000000 H
   H5         1.0     0.887757      0.232902      0.146022     Biso  1.000000 H
   H6         1.0     0.112243      0.767098      0.853978     Biso  1.000000 H
   H7         1.0     0.909744      0.369032      0.199070     Biso  1.000000 H
   H8         1.0     0.090256      0.630968      0.800930     Biso  1.000000 H
   H9         1.0     0.712809      0.252163      0.290158     Biso  1.000000 H
   H10        1.0     0.287191      0.747837      0.709842     Biso  1.000000 H
   H11        1.0     0.822914      0.132142      0.314364     Biso  1.000000 H
   H12        1.0     0.177086      0.867858      0.685636     Biso  1.000000 H
   H13        1.0     0.115579      0.947513      0.115531     Biso  1.000000 H
   H14        1.0     0.884421      0.052487      0.884469     Biso  1.000000 H
   H15        1.0     0.179244      0.098814      0.061722     Biso  1.000000 H
   H16        1.0     0.820756      0.901186      0.938278     Biso  1.000000 H
   H17        1.0     0.001339      0.066061      0.089477     Biso  1.000000 H
   H18        1.0    -0.001339      0.933939      0.910523     Biso  1.000000 H
   H19        1.0     0.429188      0.617480      0.126194     Biso  1.000000 H
   H20        1.0     0.570812      0.382520      0.873806     Biso  1.000000 H
   H21        1.0     0.373509      0.583291      0.251474     Biso  1.000000 H
   H22        1.0     0.626491      0.416709      0.748526     Biso  1.000000 H
   H23        1.0     0.447426      0.398909      0.087182     Biso  1.000000 H
   H24        1.0     0.552574      0.601091      0.912818     Biso  1.000000 H
   H25        1.0     0.283451      0.451474      0.149382     Biso  1.000000 H
   H26        1.0     0.716549      0.548526      0.850618     Biso  1.000000 H
   H27        1.0     0.353259      0.246717      0.210350     Biso  1.000000 H
   H28        1.0     0.646741      0.753283      0.789650     Biso  1.000000 H
   H29        1.0     0.482986      0.315345      0.249426     Biso  1.000000 H
   H30        1.0     0.517014      0.684655      0.750574     Biso  1.000000 H
   H31        1.0     0.768059      0.499950      0.124899     Biso  1.000000 H
   H32        1.0     0.231941      0.500050      0.875101     Biso  1.000000 H
   H33        1.0     0.662076      0.588163      0.059755     Biso  1.000000 H
   H34        1.0     0.337924      0.411837      0.940245     Biso  1.000000 H
   H35        1.0     0.658139      0.430172      0.071409     Biso  1.000000 H
   H36        1.0     0.341861      0.569828      0.928591     Biso  1.000000 H
   H37        1.0     0.496789      0.946675      0.228202     Biso  1.000000 H
   H38        1.0     0.503211      0.053325      0.771798     Biso  1.000000 H
   H39        1.0     0.534010      0.053792      0.135077     Biso  1.000000 H
   H40        1.0     0.465990      0.946208      0.864923     Biso  1.000000 H
   H41        1.0     0.712150      0.035186      0.212316     Biso  1.000000 H
   H42        1.0     0.287850      0.964814      0.787684     Biso  1.000000 H
   H43        1.0     0.770619      0.967858      0.098158     Biso  1.000000 H
   H44        1.0     0.229381      0.032142      0.901842     Biso  1.000000 H
   H45        1.0     0.676372      0.832488      0.289322     Biso  1.000000 H
   H46        1.0     0.323628      0.167512      0.710678     Biso  1.000000 H
   H47        1.0     0.716453      0.765003      0.175976     Biso  1.000000 H
   H48        1.0     0.283547      0.234997      0.824024     Biso  1.000000 H
   H49        1.0     0.408240      0.813461      0.032741     Biso  1.000000 H
   H50        1.0     0.591760      0.186539      0.967259     Biso  1.000000 H
   H51        1.0     0.390529      0.968759      0.060884     Biso  1.000000 H
   H52        1.0     0.609471      0.031241      0.939116     Biso  1.000000 H
   H53        1.0     0.340592      0.849499      0.152001     Biso  1.000000 H
   H54        1.0     0.659408      0.150501      0.847999     Biso  1.000000 H
