#======================================================================

# CRYSTAL DATA

#----------------------------------------------------------------------

data_VESTA_phase_1


_pd_phase_name                         'C5 H9 F3 Li N O3 S'
_cell_length_a                         5.5447(3)
_cell_length_b                         9.2150(6)
_cell_length_c                         10.2287(6)
_cell_angle_alpha                      79.888(3)
_cell_angle_beta                       83.612(3)
_cell_angle_gamma                      86.669(3)
_symmetry_space_group_name_H-M         'P -1'
_symmetry_Int_Tables_number            2

loop_
_symmetry_equiv_pos_as_xyz
   'x, y, z'
   '-x, -y, -z'

loop_
   _atom_site_label
   _atom_site_occupancy
   _atom_site_fract_x
   _atom_site_fract_y
   _atom_site_fract_z
   _atom_site_adp_type
   _atom_site_U_iso_or_equiv
   _atom_site_type_symbol
   S1         1.0     0.31703(8)    0.58298(6)    0.31477(5)   Uiso  0.038387 S
   F1         1.0     0.0625(4)     0.8086(2)     0.1992(2)    Uiso  0.080366 F
   F2         1.0     0.3767(4)     0.7485(2)     0.07736(16)  Uiso  0.077803 F
   F3         1.0     0.4140(4)     0.8643(2)     0.2382(2)    Uiso  0.082216 F
   O1         1.0    -0.1796(4)     0.2351(2)     0.31395(18)  Uiso  0.061793 O
   O2         1.0     0.5768(4)     0.5565(2)     0.30068(17)  Uiso  0.053757 O
   O3         1.0     0.2106(4)     0.6228(2)     0.43888(16)  Uiso  0.050654 O
   N1         1.0     0.1639(4)     0.4742(2)     0.26973(18)  Uiso  0.040911 N
   C1         1.0     0.2674(4)     0.3965(4)     0.1603(4)    Uiso  0.054554 C
   H1A        1.0     0.396106      0.324239      0.192187     Uiso  0.065000 H
   H1B        1.0     0.341516      0.468469      0.085279     Uiso  0.065000 H
   C2         1.0     0.0707(5)     0.3175(4)     0.1125(4)    Uiso  0.062445 C
   H2A        1.0    -0.064778      0.389490      0.091056     Uiso  0.075000 H
   H2B        1.0     0.137028      0.283474      0.028656     Uiso  0.075000 H
   C3         1.0    -0.0295(5)     0.1884(4)     0.2078(4)    Uiso  0.064670 C
   H3A        1.0    -0.124313      0.130257      0.160277     Uiso  0.078000 H
   H3B        1.0     0.105732      0.124016      0.243374     Uiso  0.078000 H
   C4         1.0    -0.3049(10)    0.1180(5)     0.3992(4)    Uiso  0.111041 C
   H4A        1.0    -0.401685      0.068926      0.346611     Uiso  0.166000 H
   H4B        1.0    -0.412303      0.157959      0.468247     Uiso  0.166000 H
   H4C        1.0    -0.186954      0.046675      0.441524     Uiso  0.166000 H
   C5         1.0     0.2911(5)     0.7605(4)     0.2019(4)    Uiso  0.055221 C
   Li1        1.0     0.8376(7)     0.4278(4)     0.3695(4)    Uiso  0.042067 Li

loop_
   _atom_site_aniso_label
   _atom_site_aniso_U_11
   _atom_site_aniso_U_22
   _atom_site_aniso_U_33
   _atom_site_aniso_U_12
   _atom_site_aniso_U_13
   _atom_site_aniso_U_23
   S1	 0.02840  0.04880  0.03940 -0.00430 -0.00246 -0.01120
   F1	 0.07270  0.06700  0.10120  0.01960 -0.02580 -0.01050
   F2	 0.10290  0.08010  0.04650 -0.01360  0.00060 -0.00200
   F3	 0.10680  0.05930  0.08480 -0.03350 -0.01970 -0.00790
   O1	 0.08180  0.05340  0.05300 -0.02770  0.00480 -0.01600
   O2	 0.02720  0.07120  0.06500 -0.00280 -0.00740 -0.01550
   O3	 0.05160  0.06120  0.04260 -0.00960  0.00030 -0.01910
   N1	 0.02840  0.05040  0.04650 -0.00460  0.00140 -0.01760
   C1	 0.04030  0.07210  0.05700 -0.00550  0.00460 -0.03170
   H1A	 0.00000  0.00000  0.00000  0.00000  0.00000  0.00000
   H1B	 0.00000  0.00000  0.00000  0.00000  0.00000  0.00000
   C2	 0.05710  0.08700  0.05150 -0.01570 -0.00030 -0.03360
   H2A	 0.00000  0.00000  0.00000  0.00000  0.00000  0.00000
   H2B	 0.00000  0.00000  0.00000  0.00000  0.00000  0.00000
   C3	 0.06280  0.05650  0.08340 -0.00240 -0.00870 -0.03500
   H3A	 0.00000  0.00000  0.00000  0.00000  0.00000  0.00000
   H3B	 0.00000  0.00000  0.00000  0.00000  0.00000  0.00000
   C4	 0.17300  0.09400  0.07000 -0.08700 -0.00300 -0.00390
   H4A	 0.00000  0.00000  0.00000  0.00000  0.00000  0.00000
   H4B	 0.00000  0.00000  0.00000  0.00000  0.00000  0.00000
   H4C	 0.00000  0.00000  0.00000  0.00000  0.00000  0.00000
   C5	 0.05940  0.05210  0.05640 -0.00880 -0.00950 -0.01100
   Li1	 0.03100  0.05300  0.04490 -0.00620 -0.00050 -0.01640
