#======================================================================

# CRYSTAL DATA

#----------------------------------------------------------------------

data_VESTA_phase_1


_pd_phase_name                         'C5 H9 F3 N Na O3 S'
_cell_length_a                         20.5374(7)
_cell_length_b                         10.5130(4)
_cell_length_c                         10.3830(4)
_cell_angle_alpha                      90
_cell_angle_beta                       117.479(1)
_cell_angle_gamma                      90
_symmetry_space_group_name_H-M         'C 2/c'
_symmetry_Int_Tables_number            15

loop_
_symmetry_equiv_pos_as_xyz
   'x, y, z'
   '-x, -y, -z'
   '-x, y, -z+1/2'
   'x, -y, z+1/2'
   'x+1/2, y+1/2, z'
   '-x+1/2, -y+1/2, -z'
   '-x+1/2, y+1/2, -z+1/2'
   'x+1/2, -y+1/2, z+1/2'

loop_
   _atom_site_label
   _atom_site_occupancy
   _atom_site_fract_x
   _atom_site_fract_y
   _atom_site_fract_z
   _atom_site_adp_type
   _atom_site_U_iso_or_equiv
   _atom_site_type_symbol
   Na1        1.0     0.20775(4)   -0.10718(6)    0.37508(7)   Uiso  0.044348 Na
   O1         1.0     0.39594(8)    0.57062(14)   0.58911(17)  Uiso  0.063605 O
   O3         1.0     0.28162(7)    0.14296(12)   0.11781(13)  Uiso  0.053175 O
   C3         1.0     0.42345(14)   0.4619(2)     0.5520(2)    Uiso  0.066567 C
   H3AA       0.7060  0.476617      0.466724      0.600375     Uiso  0.080000 H
   H3AB       0.7060  0.407373      0.463706      0.448283     Uiso  0.080000 H
   H3BC       0.2940  0.473238      0.440887      0.622821     Uiso  0.080000 H
   H3BD       0.2940  0.419493      0.466140      0.455321     Uiso  0.080000 H
   C4         1.0     0.4198(2)     0.6831(2)     0.5491(4)    Uiso  0.097645 C
   H4A        1.0     0.402829      0.683295      0.446047     Uiso  0.147000 H
   H4B        1.0     0.472404      0.686600      0.598310     Uiso  0.147000 H
   H4C        1.0     0.400228      0.755672      0.575602     Uiso  0.147000 H
   S1         0.7060  0.30036(16)   0.1374(4)     0.2684(4)    Uiso  0.037793 S
   F1         0.7060  0.3689(8)    -0.0890(11)    0.2788(13)   Uiso  0.118860 F
   F2         0.7060  0.4356(4)     0.0859(7)     0.3099(8)    Uiso  0.105521 F
   F3         0.7060  0.4108(4)     0.0236(4)     0.4812(4)    Uiso  0.097174 F
   O2         0.7060  0.2548(7)     0.0668(7)     0.3137(13)   Uiso  0.058501 O
   N1         0.7060  0.3225(2)     0.2678(4)     0.3355(4)    Uiso  0.041370 N
   C1         0.7060  0.3257(2)     0.2977(4)     0.4770(4)    Uiso  0.056035 C
   H1A        0.7060  0.310315      0.223673      0.511749     Uiso  0.067000 H
   H1B        0.7060  0.291650      0.366167      0.464517     Uiso  0.067000 H
   C2         0.7060  0.4014(4)     0.3364(4)     0.5891(4)    Uiso  0.060286 C
   H2A        0.7060  0.402416      0.342505      0.683248     Uiso  0.073000 H
   H2B        0.7060  0.436415      0.271653      0.595373     Uiso  0.073000 H
   C5         0.7060  0.3832(4)     0.0366(5)     0.3394(7)    Uiso  0.064313 C
   S1B        0.2940  0.3132(4)     0.1193(7)     0.2769(9)    Uiso  0.037793 S
   F1B        0.2940  0.351(2)     -0.081(3)      0.253(3)     Uiso  0.149916 F
   F2B        0.2940  0.4247(10)    0.0355(13)    0.269(2)     Uiso  0.112216 F
   F3B        0.2940  0.4183(7)    -0.0251(8)     0.4490(10)   Uiso  0.082886 F
   O2B        0.2940  0.2607(17)    0.043(2)      0.302(3)     Uiso  0.058501 O
   N1B        0.2940  0.3484(5)     0.2407(8)     0.3515(10)   Uiso  0.041370 N
   C1B        0.2940  0.3749(7)     0.2419(7)     0.5116(7)    Uiso  0.058074 C
   H1BA       0.2940  0.426678      0.220354      0.560911     Uiso  0.069000 H
   H1BB       0.2940  0.348473      0.178513      0.536900     Uiso  0.069000 H
   C2B        0.2940  0.3636(7)     0.3721(9)     0.5614(10)   Uiso  0.051991 C
   H2BB       0.2940  0.370400      0.368223      0.660192     Uiso  0.062000 H
   H2BA       0.2940  0.314525      0.403356      0.498807     Uiso  0.062000 H
   C5B        0.2940  0.3819(11)   -0.0001(16)    0.3058(18)   Uiso  0.064313 C

loop_
   _atom_site_aniso_label
   _atom_site_aniso_U_11
   _atom_site_aniso_U_22
   _atom_site_aniso_U_33
   _atom_site_aniso_U_12
   _atom_site_aniso_U_13
   _atom_site_aniso_U_23
   Na1	 0.05350  0.04370  0.03980 -0.00040  0.02490  0.00250
   O1	 0.06350  0.06470  0.07840 -0.00040  0.04620 -0.00110
   O3	 0.06750  0.05220  0.03340 -0.00380  0.01780  0.00170
   C3	 0.08750  0.06570  0.05350 -0.01690  0.03850 -0.01780
   H3AA	 0.00000  0.00000  0.00000  0.00000  0.00000  0.00000
   H3AB	 0.00000  0.00000  0.00000  0.00000  0.00000  0.00000
   H3BC	 0.00000  0.00000  0.00000  0.00000  0.00000  0.00000
   H3BD	 0.00000  0.00000  0.00000  0.00000  0.00000  0.00000
   C4	 0.13400  0.06050  0.14400 -0.00280  0.10300 -0.00180
   H4A	 0.00000  0.00000  0.00000  0.00000  0.00000  0.00000
   H4B	 0.00000  0.00000  0.00000  0.00000  0.00000  0.00000
   H4C	 0.00000  0.00000  0.00000  0.00000  0.00000  0.00000
   S1	 0.04400  0.03390  0.03360  0.00120  0.01630  0.00540
   F1	 0.15500  0.07500  0.12200  0.06000  0.06000  0.02700
   F2	 0.06450  0.11400  0.14200  0.02400  0.05100  0.03500
   F3	 0.11100  0.09800  0.05830  0.05000  0.01840  0.02470
   O2	 0.08100  0.04500  0.06500 -0.01700  0.04690 -0.00500
   N1	 0.05200  0.03680  0.03970  0.00060  0.02490  0.00020
   C1	 0.07500  0.05020  0.05370 -0.00380  0.03890 -0.00480
   H1A	 0.00000  0.00000  0.00000  0.00000  0.00000  0.00000
   H1B	 0.00000  0.00000  0.00000  0.00000  0.00000  0.00000
   C2	 0.07600  0.05600  0.04350  0.00400  0.02300 -0.00040
   H2A	 0.00000  0.00000  0.00000  0.00000  0.00000  0.00000
   H2B	 0.00000  0.00000  0.00000  0.00000  0.00000  0.00000
   C5	 0.08490  0.04900  0.05700  0.01700  0.03100  0.00700
   S1B	 0.04400  0.03390  0.03360  0.00120  0.01630  0.00540
   F1B	 0.15500  0.06800  0.17500  0.06700  0.03200  0.00000
   F2B	 0.12500  0.10500  0.13300  0.03400  0.08200  0.03300
   F3B	 0.09800  0.07000  0.06200  0.03100  0.02100  0.02200
   O2B	 0.08100  0.04500  0.06500 -0.01700  0.04690 -0.00500
   N1B	 0.05200  0.03680  0.03970  0.00060  0.02490  0.00020
   C1B	 0.09300  0.03700  0.03900 -0.00300  0.02600 -0.00200
   H1BA	 0.00000  0.00000  0.00000  0.00000  0.00000  0.00000
   H1BB	 0.00000  0.00000  0.00000  0.00000  0.00000  0.00000
   C2B	 0.07000  0.05100  0.04400 -0.00100  0.03400 -0.01400
   H2BB	 0.00000  0.00000  0.00000  0.00000  0.00000  0.00000
   H2BA	 0.00000  0.00000  0.00000  0.00000  0.00000  0.00000
   C5B	 0.08490  0.04900  0.05700  0.01700  0.03100  0.00700
